$ ROCKET M1- MK0
$ EDUCATIONAL TRAINING DECK ONLY - NOT VALID FOR STRUCTURAL QUALIFICATION.
$ Operational pressure loads, thermal loads, real material data, and safety
$ factors are intentionally omitted.
SOL 101
CEND
TITLE = ROCKET M1- MK0 DISPLAY MODEL TRAINING MESH
SUBCASE 1
  SPC = 1
BEGIN BULK
PARAM,POST,-1
MAT1,1,1.0,0.30,0.30
PSHELL,1,1,1.0
GRID,1,,0.0,0.0,0.0
GRID,2,,1.0,0.0,0.0
GRID,3,,1.0,1.0,0.0
GRID,4,,0.0,1.0,0.0
CQUAD4,1,1,1,2,3,4
SPC1,1,123456,1
ENDDATA
